This is an example file
It is full of example text.
Ideally, it would have a lot more text in it, but we take what we can get.
New Line. Woo. test test test
